LAMMPS (2 Aug 2023 - Update 1)
Loaded 1 plugins from C:\Users\bb105\AppData\Local\LAMMPS 64-bit 2Aug2023\plugins
# Simulation setup
units           metal
newton          on
atom_style      full
dimension       3
boundary        p p p

# Box and atom creation
read_data       bilayer_hBN.in.data
Reading data file ...
  triclinic box = (-39.006363 -37.533609 -32.057279) to (43.34436 42.542711 45.329282) with tilt (0 0 0)
  reading atoms ...
  4864 atoms
  reading velocities ...
  4864 velocities
Finding 1-2 1-3 1-4 neighbors ...
     0 = max # of 1-2 neighbors
     0 = max # of 1-3 neighbors
     0 = max # of 1-4 neighbors
     1 = max # of special neighbors

mass            1 10.811 # B
mass            2 14.0067 # N

# Potential
pair_style      hybrid/overlay extep ilp/graphene/hbn 16.0 coul/shield 16.0 1
pair_coeff      * * extep          BN_new_formatted.extep B N
Reading ExTeP potential file BN_new_formatted.extep with DATE: 2017-11-28
pair_coeff      * * ilp/graphene/hbn BNCH.ILP B N
pair_coeff      1 1 coul/shield 0.70
pair_coeff      1 2 coul/shield 0.69498201415576216335
pair_coeff      2 2 coul/shield 0.69

# Neighbor update settings
neighbor        0.5 bin
neigh_modify    every 4
neigh_modify    delay 0
neigh_modify    check yes page 800000 one 80000

# Timestep
timestep        0.0025

# Thermo settings
thermo          1000
thermo_style    custom step temp etotal pe press lx ly lz

# Initialize velocities
velocity        all create 300.0 12345 mom yes rot no dist gaussian

# Time integration fix - NVT ensemble
fix 1 all nvt temp 300.0 300.0 100.0

# Dump setup for VMD visualization
dump            1 all atom 100 hBN.lammpstrj
dump_modify     1 sort id

# Running the simulation
run             10000

CITE-CITE-CITE-CITE-CITE-CITE-CITE-CITE-CITE-CITE-CITE-CITE-CITE

Your simulation uses code contributions which should be cited:

- ilp/graphene/hbn potential doi:10.1021/acs.nanolett.8b02848
@Article{Ouyang2018
 author = {W. Ouyang and D. Mandelli and M. Urbakh and O. Hod},
 title = {Nanoserpents: Graphene Nanoribbon Motion on Two-Dimensional Hexagonal Materials},
 journal = {Nano Letters},
 volume =  18,
 pages =   6009,
 year =    2018,
}

CITE-CITE-CITE-CITE-CITE-CITE-CITE-CITE-CITE-CITE-CITE-CITE-CITE

Step          Temp          TotEng         PotEng         Press            Lx             Ly             Lz
0   300           -32483.317     -32671.894      674.65053      82.350723      80.07632       77.386561
Averages over the last 6 of 11 rows, steps 5000 to 10000:
Temp TotEng PotEng Press Lx Ly Lz
153.875 -32475.6 -32572.3 -26.1179 82.3507 80.0763 77.3866
Loop time of 3114.1 on 1 procs for 10000 steps with 4864 atoms
